$DATA1 SOURCE='PrimeSim HSPICE' VERSION='W-2024.09 linux64' PARAM_COUNT=0
.TITLE ''
 rise_delay       fall_delay       rise_tr          fall_fr         
 temper           alter#          
  7.091e-11        8.097e-11        6.135e-11        5.026e-11      
  -40.0000        5               
