$DATA1 SOURCE='PrimeSim HSPICE' VERSION='W-2024.09 linux64' PARAM_COUNT=0
.TITLE ''
 rise_delay       fall_delay       rise_tr          fall_fr         
 temper           alter#          
  3.501e-11        4.227e-11        2.646e-11        2.300e-11      
  -40.0000        2               
