$DATA1 SOURCE='PrimeSim HSPICE' VERSION='W-2024.09-SP2 linux64' PARAM_COUNT=0
.TITLE ''
 fall_delay       rise_delay       rise_tr          fall_fr         
 temper           alter#          
  4.513e-11        5.178e-11        3.848e-11        3.176e-11      
  -40.0000        2               
