$DATA1 SOURCE='PrimeSim HSPICE' VERSION='W-2024.09-SP2 linux64' PARAM_COUNT=0
.TITLE ''
 fall_delay       rise_delay       rise_tr          fall_fr         
 temper           alter#          
  6.653e-11        7.714e-11        4.984e-11        4.301e-11      
  -40.0000        4               
