$DATA1 SOURCE='PrimeSim HSPICE' VERSION='W-2024.09 linux64' PARAM_COUNT=0
.TITLE ''
 rise_delay       fall_delay       rise_tr          fall_fr         
 temper           alter#          
  6.405e-11        7.370e-11        5.101e-11        4.410e-11      
  -40.0000        4               
