$DATA1 SOURCE='PrimeSim HSPICE' VERSION='W-2024.09 linux64' PARAM_COUNT=0
.TITLE ''
 rise_delay       fall_delay       rise_tr          fall_fr         
 temper           alter#          
  5.716e-11        6.547e-11        4.215e-11        3.714e-11      
  -40.0000        1               
