$DATA1 SOURCE='PrimeSim HSPICE' VERSION='W-2024.09-SP2 linux64' PARAM_COUNT=0
.TITLE ''
 fall_delay       rise_delay       rise_tr          fall_fr         
 temper           alter#          
  7.494e-11        8.802e-11        5.539e-11        4.940e-11      
  -40.0000        5               
